deliverables/chatgpt_bundle_20261005/06_codesign_campaigns_reports_AtoQ/reports/experiment_K/tables/TABLE_K13_tds_validation.csv
candidate,event_bus,pulse_fraction,status,peak_frequency_Hz,peak_RoCoF_Hz_s,peak_voltage_deviation_pu,finite,candidate_sha256,error,relative_frequency_scaling_error,relative_voltage_scaling_error
nominal,16,0.0005,EVALUATED,0.0002844933508373712,0.0010353937265708654,2.405249387615882e-5,true,64989ecfcc93ef471a4f6a5f9fe6be382c634e88a6561faf847dd58871ea65b9,,1.4582532327889197e-5,2.272596760921619e-5
nominal,16,0.001,EVALUATED,0.0005689949989417137,0.0020707963967565818,4.810389451992414e-5,true,64989ecfcc93ef471a4f6a5f9fe6be382c634e88a6561faf847dd58871ea65b9,,1.4582532327889197e-5,2.272596760921619e-5
nominal,8,0.0005,EVALUATED,0.0008983668747854963,0.00339124272952468,5.5524950621443914e-5,true,64989ecfcc93ef471a4f6a5f9fe6be382c634e88a6561faf847dd58871ea65b9,,2.081991745450651e-5,5.013214676419242e-5
nominal,8,0.001,EVALUATED,0.0017967711574193464,0.006782353557901945,0.00011104433407294056,true,64989ecfcc93ef471a4f6a5f9fe6be382c634e88a6561faf847dd58871ea65b9,,2.081991745450651e-5,5.013214676419242e-5
robust_ExpG_beta,16,0.0005,EVALUATED,7.454298447524605e-5,0.0007024619044966475,2.3458931409203743e-5,true,1382d5745607982978372cf5ffcf3a9e85c9cd1ee8bd1b496b263bc068fa62d6,,4.750006125431305e-6,2.225732730165575e-5
robust_ExpG_beta,16,0.001,EVALUATED,0.00014908526079122637,0.0014049053968451977,4.691681855217844e-5,true,1382d5745607982978372cf5ffcf3a9e85c9cd1ee8bd1b496b263bc068fa62d6,,4.750006125431305e-6,2.225732730165575e-5
robust_ExpG_beta,8,0.0005,EVALUATED,0.00023586199450087444,0.0021265449190708435,5.4737085669720464e-5,true,1382d5745607982978372cf5ffcf3a9e85c9cd1ee8bd1b496b263bc068fa62d6,,3.9073465654904105e-5,4.997841224829713e-5
robust_ExpG_beta,8,0.001,EVALUATED,0.00047170555711066603,0.004252942654665993,0.00010946869999417519,true,1382d5745607982978372cf5ffcf3a9e85c9cd1ee8bd1b496b263bc068fa62d6,,3.9073465654904105e-5,4.997841224829713e-5
